units metal
dimension 3
boundary p p f
atom_style atomic

# Tungsten parameters
variable lattice_param equal 3.165    # W BCC lattice
variable box_x equal 64               # X dimension (unit cells)
variable box_y equal 64               # Y dimension (unit cells)
variable box_z equal 47               # Z dimension (unit cells)
variable indent_radius equal 9.5      # Indenter radius (Ã…)
variable force_constant equal 10.0       # eV/Ã…Â²
variable indent_velocity equal 0.10   # Ã…/ps
variable indent_velocity_u equal 0.10  # Ã…/ps
variable max_indent equal 25.0         # Max penetration depth (Ã…)
variable temperature equal 10.0
variable timestep_val equal 0.002     # 2 fs timestep

# Create W single crystal
lattice bcc 3.165 orient x 1 0 0 orient y 0 1 0 orient z 0 0 1
Lattice spacing in x,y,z = 3.165 3.165 3.165
region simbox block 0 64 0 64 0 47
create_box 1 simbox
Created orthogonal box = (0 0 0) to (202.56 202.56 148.755)
create_atoms 1 box
Created 385024 atoms

# Atomic properties
mass 1 183.84

# EAM potential for W
pair_style eam/alloy
pair_coeff * * potential-WHHe-EAM1.eam.alloy W

# ============================================================================
# VOID CREATION SECTION - NEW ADDITION
# ============================================================================

# Define void parameters
variable void1_x equal 45.0  # x-coordinate of void 1 center (Ã…)
variable void1_y equal 24.0  # y-coordinate of void 1 center (Ã…)
variable void1_z equal 115.0  # z-coordinate of void 1 center (Ã…)
variable void1_radius equal 20.0  # radius of void 1 (Ã…)

variable void2_x equal 101.28  # x-coordinate of void 2 center (Ã…)
variable void2_y equal 121.0  # y-coordinate of void 2 center (Ã…)
variable void2_z equal 101.28.0  # z-coordinate of void 2 center (Ã…)
variable void2_radius equal 10.0  # radius of void 2 (Ã…)

variable void3_x equal 120.0   # x-coordinate of void 3 center (Ã…)
variable void3_y equal 66.0  # y-coordinate of void 3 center (Ã…)
variable void3_z equal 42.0  # z-coordinate of void 3 center (Ã…)
variable void3_radius equal 15.0  # radius of void 3 (Ã…)

# Create spherical regions for voids
region void1 sphere 45 24 115 20
region void2 sphere 101.28 121 101.28 10
region void3 sphere 120 66 42 15

# Delete atoms in void regions to create spherical voids
delete_atoms region void1
Deleted 0 atoms, new total = 385024
delete_atoms region void2
Deleted 0 atoms, new total = 385024
delete_atoms region void3
Deleted 0 atoms, new total = 385024

# Print information about void creation
print "============================================================================"
============================================================================
print "VOID CREATION COMPLETED:"
VOID CREATION COMPLETED:
Void 1: Center=(45, 24, 115), Radius=20 …---------------------------------------------------------------------------------------------------------------
Void 2: Center=(101.28, 121, 101.28), Radius=10 …--------------------------------------------------------------------------------------------------------------
Void 3: Center=(120, 66, 42), Radius=15 …----------------------------------------------------------------------------------------------------------------------
print "============================================================================"
============================================================================

# ============================================================================
# END OF VOID CREATION SECTION
# ============================================================================

# --- Minimization #1: right after void creation ---
# Relax local stresses from deleting atoms
print "Minimization(1)-------------------------------------------------------------------------------------------------------"
Minimization(1)-------------------------------------------------------------------------------------------------------
minimize 1.0e-6 1.0e-8 1000 10000
Step          Temp          E_pair         E_mol          TotEng         Press
0   0             -3409240.8      0             -3409240.8     -75131.769
Loop time of 0.655902 on 62 procs for 24 steps with 385024 atoms

Minimization stats:
  Stopping criterion = energy tolerance
  Energy initial, next-to-last, final =
  Force two-norm initial, final = 73.178752 1.2697249
  Force max component initial, final = 0.69367159 0.0070731764
  Final line search alpha, max atom move = 1 0.0070731764
  Iterations, force evaluations = 24 48

# Regions and groups
variable fix_height equal 2.0
variable thermo_height equal 5.0
region bottom_fix block INF INF INF INF 0 2
region thermo_region block INF INF INF INF 2 5
region mobile_region block INF INF INF INF 5 INF

group bottom region bottom_fix
16384 atoms in group bottom
group thermo region thermo_region
24576 atoms in group thermo
group mobile region mobile_region
344064 atoms in group mobile

# Reflective walls to prevent atoms from escaping in z-direction
fix wall_bottom all wall/reflect zlo EDGE
fix wall_top all wall/reflect zhi EDGE

# Time integration
timestep 0.002

dump trajectory all atom 100 nanoindent_void.dump
dump_modify trajectory first yes

# Energy minimization(2)-----------------------------------------------------------------------------------
minimize 1.0e-9 1.0e-11 5000 50000
Step          Temp          E_pair         E_mol          TotEng         Press
24   0             -3411393.3      0             -3411393.3     -30952.374
Loop time of 0.740754 on 62 procs for 24 steps with 385024 atoms

Minimization stats:
  Stopping criterion = energy tolerance
  Energy initial, next-to-last, final =
  Force two-norm initial, final = 1.2697249 0.050947209
  Force max component initial, final = 0.0070731764 0.00031538352
  Final line search alpha, max atom move = 1 0.00031538352
  Iterations, force evaluations = 24 48

# Thermal equilibration
velocity all create 10 12345 mom yes rot no
fix 1 thermo nvt temp 10 10 $(50*dt)
fix 1 thermo nvt temp 10 10 0.10000000000000000555
thermo 100
thermo_style custom step temp pe ke etotal press vol
run 2000
Step          Temp          PotEng         KinEng         TotEng         Press          Volume
48   10            -3411396.3      497.68129     -3410898.7     -32278.131      6103500
Averages over the last 11 of 22 rows, steps 1100 to 2048:
Temp PotEng KinEng TotEng Press Volume
10.0035 -3.41136e+06 497.856 -3.41087e+06 -32289.4 6.1035e+06
Loop time of 24.3329 on 62 procs for 2000 steps with 385024 atoms

unfix 1

fix 2 bottom setforce 0.0 0.0 0.0
# Energy minimization(3)------------------------------------------------------------------------------------
minimize 1.0e-9 1.0e-11 5000 50000
Step          Temp          PotEng         KinEng         TotEng         Press          Volume
2048   9.98269       -3411364.1      496.8198      -3410867.2     -32289.824      6103500
Loop time of 0.295487 on 62 procs for 9 steps with 385024 atoms

Minimization stats:
  Stopping criterion = energy tolerance
  Energy initial, next-to-last, final =
  Force two-norm initial, final = 28.160306 0.11929232
  Force max component initial, final = 0.46562186 0.0017056338
  Final line search alpha, max atom move = 1 0.0017056338
  Iterations, force evaluations = 9 18

# Add NVE integration for mobile group
fix integrator mobile nve

# Indenter setup
variable x_center equal 32.0
variable y_center equal 32.0
variable z_surface equal $(zhi)
variable z_surface equal 148.75499999999999545
variable z_indent_start equal $(v_z_surface + 35.0)
variable z_indent_start equal 183.75499999999999545
variable step0 equal step
variable z_indent equal "v_z_indent_start - v_indent_velocity * time"

# Thermostat and forces
fix fix_bottom bottom setforce 0.0 0.0 0.0
fix thermostat thermo langevin 10 10 $(50*dt) 48279
fix thermostat thermo langevin 10 10 0.10000000000000000555 48279

fix indenter mobile indent 10 sphere 32 32 v_z_indent 9.5
# Output settings
thermo 200
thermo_style custom step temp pe ke etotal press v_z_indent f_indenter

# ------------------------ Loading --------------------------
print "Loading phase........................................................................................."
Loading phase.........................................................................................

variable loading_steps equal 25/0.1/0.002
run 125000
Step          Temp          PotEng         KinEng         TotEng         Press        v_z_indent     f_indenter
2057   9.98269       -3411396.3      496.8198      -3410899.5     -32278.209      183.3526       0
Averages over the last 314 of 627 rows, steps 64600 to 127057:
Temp PotEng KinEng TotEng Press v_z_indent f_indenter
21.9664 -3.40912e+06 1093.23 -3.40802e+06 -20769.8 164.584 117.247
Loop time of 1969.02 on 62 procs for 125000 steps with 385024 atoms

# ------------------------ Holding --------------------------
print "Holding phase.........................................................................................."
Holding phase..........................................................................................
unfix indenter
variable z_hold equal $(v_z_indent)
variable z_hold equal 158.35259999999999536
fix indenter_hold mobile indent 10 sphere 32 32 v_z_hold 9.5

thermo_style custom step temp pe ke etotal press v_z_hold f_indenter_hold
run 20000
Step          Temp          PotEng         KinEng         TotEng         Press         v_z_hold    f_indenter_hold
127057   45.369108     -3407146.4      2257.9356     -3404888.5     -14597.821      158.3526       153.31935
Averages over the last 51 of 102 rows, steps 137200 to 147057:
Temp PotEng KinEng TotEng Press v_z_hold f_indenter_hold
46.0922 -3.40716e+06 2293.92 -3.40487e+06 -15700.2 158.353 145.338
Loop time of 332.013 on 62 procs for 20000 steps with 385024 atoms

# ------------------------ Unloading --------------------------
print "Unloading phase....................................................................................."
Unloading phase.....................................................................................
unfix indenter_hold

# Capture final holding position and current step
variable z_hold_final equal $(v_z_hold)
variable z_hold_final equal 158.35259999999999536
variable step_unload_start equal $(step)
variable step_unload_start equal 147057

# Define unloading position - retract at specified velocity
variable step_in_unload equal "(step - v_step_unload_start)"
variable z_unload equal "v_z_hold_final + v_indent_velocity_u * v_step_in_unload * dt"

# Apply unloading fix
fix indenter_unload mobile indent 10 sphere 32 32 v_z_unload 9.5

# Update thermo output for unloading
thermo_style custom step temp pe ke etotal press v_z_unload f_indenter_unload

# Calculate unloading steps based on desired retraction distance
variable unload_distance equal 40.0  # Slightly more than max_indent to ensure complete unloading
variable unloading_steps equal $(v_unload_distance/v_indent_velocity_u/dt)
variable unloading_steps equal 200000

# Run unloading
run 200000
Step          Temp          PotEng         KinEng         TotEng         Press        v_z_unload   f_indenter_unload
147057   46.172902     -3407164.5      2297.9389     -3404866.6     -15004.334      158.3526       145.36399
Averages over the last 501 of 1002 rows, steps 247200 to 347057:
Temp PotEng KinEng TotEng Press v_z_unload f_indenter_unload
49.2923 -3.40827e+06 2453.19 -3.40582e+06 -25799 188.381 0
Loop time of 3369.06 on 62 procs for 200000 steps with 385024 atoms

# ------------------------ Final Relaxation --------------------------
print "Final relaxation.........................................................................................."
Final relaxation..........................................................................................
unfix indenter_unload
thermo_style custom step temp pe ke etotal press
run 1000
Step          Temp          PotEng         KinEng         TotEng         Press
347057   49.84513      -3408247.2      2480.6988     -3405766.6     -26492.034
Loop time of 14.8225 on 62 procs for 1000 steps with 385024 atoms

undump trajectory
print "-----------------------Nanoindentation completed---------------------"
