units metal
dimension 3
boundary p p f
atom_style atomic

# Tungsten parameters
variable lattice_param equal 3.165    # W BCC lattice
variable box_x equal 64               # X dimension (unit cells)
variable box_y equal 64               # Y dimension (unit cells)
variable box_z equal 47               # Z dimension (unit cells)
variable indent_radius equal 9.5      # Indenter radius (Å)
variable force_constant equal 10.0     # eV/Å²
variable indent_velocity equal 0.10  # Å/ps
variable indent_velocity_u equal 0.10 # Å/ps
variable max_indent equal 25.0        # Max penetration depth (Å)
variable temperature equal 10.0
variable timestep_val equal 0.002     # 2 fs timestep

# Create W single crystal
lattice bcc 3.165 orient x 1 0 0 orient y 0 1 0 orient z 0 0 1
Lattice spacing in x,y,z = 3.165 3.165 3.165
region simbox block 0 64 0 64 0 47
create_box 1 simbox
Created orthogonal box = (0 0 0) to (202.56 202.56 148.755)
create_atoms 1 box
Created 385024 atoms

# Atomic properties
mass 1 183.84

# EAM potential for W
pair_style eam/alloy
pair_coeff * * potential-WHHe-EAM1.eam.alloy W

# ------------------ Dislocation Loop Creation ------------------
print "Inserting three interstitial dislocation loops (Banisalman et al. 2022)"
Inserting three interstitial dislocation loops (Banisalman et al. 2022)
variable loop_radius equal "5 / v_lattice_param"

# Loop 1
variable loop1_x equal "42.0 / v_lattice_param"
variable loop1_y equal "42.0 / v_lattice_param"
variable loop1_z equal "128.0 / v_lattice_param"
variable bx1 equal "v_lattice_param"
variable by1 equal "0.0"
variable bz1 equal "0.0"
variable loop1_zlo equal "v_loop1_z - 0.5"
variable loop1_zhi equal "v_loop1_z + 0.5"
region loop1_region cylinder z 13.2701421800948 13.2701421800948 1.57977883096367 39.9423380726698 40.9423380726698 units lattice
group loop1_atoms region loop1_region
16 atoms in group loop1_atoms

# Loop 2
variable loop2_x equal "76.0 / v_lattice_param"
variable loop2_y equal "76.0 / v_lattice_param"
variable loop2_z equal "134.0 / v_lattice_param"
variable bx2 equal "v_lattice_param"
variable by2 equal "0.0"
variable bz2 equal "0.0"
variable loop2_zlo equal "v_loop2_z - 0.5"
variable loop2_zhi equal "v_loop2_z + 0.5"
region loop2_region cylinder z 24.0126382306477 24.0126382306477 1.57977883096367 41.8380726698262 42.8380726698262 units lattice
group loop2_atoms region loop2_region
17 atoms in group loop2_atoms

# Loop 3
variable loop3_x equal "110.0 / v_lattice_param"
variable loop3_y equal "110.0 / v_lattice_param"
variable loop3_z equal "128.0 / v_lattice_param"
variable bx3 equal "v_lattice_param"
variable by3 equal "0.0"
variable bz3 equal "0.0"
variable loop3_zlo equal "v_loop3_z - 0.5"
variable loop3_zhi equal "v_loop3_z + 0.5"
region loop3_region cylinder z 34.7551342812006 34.7551342812006 1.57977883096367 39.9423380726698 40.9423380726698 units lattice
group loop3_atoms region loop3_region
16 atoms in group loop3_atoms

# Displace loops (FIXED units to lattice)
displace_atoms loop1_atoms move 3.165 0 0 units lattice
Displacing atoms ...
displace_atoms loop2_atoms move 3.165 0 0 units lattice
Displacing atoms ...
displace_atoms loop3_atoms move 3.165 0 0 units lattice
Displacing atoms ...

print "Energy minimization after loop creation(1)------------------------------------------------------------------"
Energy minimization after loop creation(1)------------------------------------------------------------------
minimize 1.0e-9 1.0e-11 5000 50000
Step          Temp          E_pair         E_mol          TotEng         Press
0   0             -3405611.9      0             -3405611.9     -74853.218
Loop time of 4.68479 on 62 procs for 263 steps with 385024 atoms

Minimization stats:
  Stopping criterion = energy tolerance
  Energy initial, next-to-last, final =
  Force two-norm initial, final = 815.40025 5.3621826
  Force max component initial, final = 86.741364 1.3637656
  Final line search alpha, max atom move = 0.16049153 0.21887283
  Iterations, force evaluations = 263 410

# Regions and groups
variable fix_height equal 2.0
variable thermo_height equal 20.0
region bottom_fix block INF INF INF INF 0 2
region thermo_region block INF INF INF INF 2 20
region mobile_region block INF INF INF INF 20 INF

group bottom region bottom_fix
16384 atoms in group bottom
group thermo region thermo_region
147456 atoms in group thermo
group mobile region mobile_region
221184 atoms in group mobile

# Reflective walls to prevent atoms from escaping in z-direction
fix wall_bottom all wall/reflect zlo EDGE
fix wall_top all wall/reflect zhi EDGE

# Time integration
timestep 0.002

dump trajectory all atom 100 nanoindent_dislocation_loop.dump
dump_modify trajectory first yes

# Energy minimization(2)-----------------------------------------------------------------------------------
minimize 1.0e-9 1.0e-11 5000 50000
Step          Temp          E_pair         E_mol          TotEng         Press
263   0             -3411097.8      0             -3411097.8     -35315.759
Loop time of 33.4192 on 62 procs for 1383 steps with 385024 atoms

Minimization stats:
  Stopping criterion = energy tolerance
  Energy initial, next-to-last, final =
  Force two-norm initial, final = 5.3621826 3.6392197
  Force max component initial, final = 1.3637656 1.5508939
  Final line search alpha, max atom move = 0.064482959 0.10000622
  Iterations, force evaluations = 1383 2766

# Thermal equilibration
velocity all create 10 12345 mom yes rot no
fix 1 thermo nvt temp 10 10 $(50*dt)
fix 1 thermo nvt temp 10 10 0.10000000000000000555
thermo 100
thermo_style custom step temp pe ke etotal press vol
run 2000
Step          Temp          PotEng         KinEng         TotEng         Press          Volume
1646   10            -3411104.9      497.68129     -3410607.3     -34273.307      6103500
Averages over the last 11 of 22 rows, steps 2700 to 3646:
Temp PotEng KinEng TotEng Press Volume
10.0221 -3.41092e+06 498.782 -3.41042e+06 -34346.5 6.1035e+06
Loop time of 20.2945 on 62 procs for 2000 steps with 385024 atoms

unfix 1

fix 2 bottom setforce 0.0 0.0 0.0
# Energy minimization(3)------------------------------------------------------------------------------------
minimize 1.0e-9 1.0e-11 5000 50000
Step          Temp          PotEng         KinEng         TotEng         Press          Volume
3646   10.034915     -3410915.5      499.41893     -3410416.1     -34347.135      6103500
Loop time of 0.377986 on 62 procs for 15 steps with 385024 atoms

Minimization stats:
  Stopping criterion = energy tolerance
  Energy initial, next-to-last, final =
  Force two-norm initial, final = 68.245282 4.2947793
  Force max component initial, final = 1.5508939 1.38739
  Final line search alpha, max atom move = 0.19204414 0.26644012
  Iterations, force evaluations = 15 28

# Add NVE integration for mobile group
fix integrator mobile nve

# Indenter setup
variable x_center equal 32.0
variable y_center equal 32.0
variable z_surface equal $(zhi)
variable z_surface equal 148.75499999999999545
variable z_indent_start equal $(v_z_surface + 35.0)
variable z_indent_start equal 183.75499999999999545
variable step0 equal step
variable z_indent equal "v_z_indent_start - v_indent_velocity * time"

# Thermostat and forces
fix fix_bottom bottom setforce 0.0 0.0 0.0
fix thermostat thermo langevin 10 10 $(50*dt) 48279
fix thermostat thermo langevin 10 10 0.10000000000000000555 48279

fix indenter mobile indent 10 sphere 32 32 v_z_indent 9.5
# Output settings
thermo 200
thermo_style custom step temp pe ke etotal press v_z_indent f_indenter

# ------------------------ Loading --------------------------
print "Loading phase........................................................................................."
Loading phase.........................................................................................

variable loading_steps equal 25/0.1/0.002
run 125000
Step          Temp          PotEng         KinEng         TotEng         Press        v_z_indent     f_indenter
3661   10.034915     -3411105        499.41893     -3410605.6     -34255.989      183.3287       0
Averages over the last 314 of 627 rows, steps 66200 to 128661:
Temp PotEng KinEng TotEng Press v_z_indent f_indenter
23.3608 -3.40892e+06 1162.62 -3.40776e+06 -24589.4 164.561 113.974
Loop time of 2343.05 on 62 procs for 125000 steps with 385024 atoms

# ------------------------ Holding --------------------------
print "Holding phase.........................................................................................."
Holding phase..........................................................................................
unfix indenter
variable z_hold equal $(v_z_indent)
variable z_hold equal 158.32869999999999777
fix indenter_hold mobile indent 10 sphere 32 32 v_z_hold 9.5

thermo_style custom step temp pe ke etotal press v_z_hold f_indenter_hold
run 20000
Step          Temp          PotEng         KinEng         TotEng         Press         v_z_hold    f_indenter_hold
128661   46.925962     -3407007.4      2335.4173     -3404672       -20204.773      158.3287       148.30557
Averages over the last 51 of 102 rows, steps 138800 to 148661:
Temp PotEng KinEng TotEng Press v_z_hold f_indenter_hold
55.6824 -3.40739e+06 2771.21 -3.40462e+06 -21595.1 158.329 111.345
Loop time of 306.023 on 62 procs for 20000 steps with 385024 atoms

# ------------------------ Unloading --------------------------
print "Unloading phase....................................................................................."
Unloading phase.....................................................................................
unfix indenter_hold

# Capture final holding position and current step
variable z_hold_final equal $(v_z_hold)
variable z_hold_final equal 158.32869999999999777
variable step_unload_start equal $(step)
variable step_unload_start equal 148661

# Define unloading position - retract at specified velocity
variable step_in_unload equal "(step - v_step_unload_start)"
variable z_unload equal "v_z_hold_final + v_indent_velocity_u * v_step_in_unload * dt"

# Apply unloading fix
fix indenter_unload mobile indent 10 sphere 32 32 v_z_unload 9.5

# Update thermo output for unloading
thermo_style custom step temp pe ke etotal press v_z_unload f_indenter_unload

# Calculate unloading steps based on desired retraction distance
variable unload_distance equal 40.0  # Slightly more than max_indent to ensure complete unloading
variable unloading_steps equal $(v_unload_distance/v_indent_velocity_u/dt)
variable unloading_steps equal 200000

# Run unloading
run 200000
Step          Temp          PotEng         KinEng         TotEng         Press        v_z_unload   f_indenter_unload
148661   55.858842     -3407392.6      2779.99       -3404612.6     -20686.67       158.3287       104.91536
Averages over the last 501 of 1002 rows, steps 248800 to 348661:
Temp PotEng KinEng TotEng Press v_z_unload f_indenter_unload
58.1292 -3.40798e+06 2892.98 -3.40509e+06 -27435.4 188.356 0
Loop time of 3403.38 on 62 procs for 200000 steps with 385024 atoms

# ------------------------ Final Relaxation --------------------------
print "Final relaxation.........................................................................................."
Final relaxation..........................................................................................
unfix indenter_unload
thermo_style custom step temp pe ke etotal press
run 1000
Step          Temp          PotEng         KinEng         TotEng         Press
348661   58.653922     -3407963.5      2919.0959     -3405044.4     -26484.232
Loop time of 11.6379 on 62 procs for 1000 steps with 385024 atoms

undump trajectory
print "-----------------------Nanoindentation completed---------------------"
